  49
 CASSCF(10,10)/6-31G(d) optimization
 O    11.26736263    17.80967669    24.00237766
 C    12.39992205    18.16009059    24.34912645
 C    13.43870586    18.39732523    23.30078012
 C    12.98249615    18.84590322    22.08950090
 C    11.61074188    19.27074602    21.87990694
 C    12.67721201    18.37118402    25.80695440
 C    11.92709790    17.65061639    26.73172528
 H    11.19739659    16.94691088    26.37856251
 C    12.11518192    17.84127242    28.08813704
 H    11.53755894    17.27250977    28.79450428
 C    13.04300355    18.77075523    28.53482852
 H    13.18723202    18.92361565    29.58963957
 C    13.78095591    19.50361943    27.62149362
 H    14.49528286    20.23090763    27.96335303
 C    13.60360695    19.30021164    26.26263979
 H    14.18345196    19.87319609    25.56394674
 C    14.86108016    18.02595392    23.57680931
 C    15.16344510    16.75608702    24.05946289
 H    14.37173640    16.04578461    24.22344144
 C    16.47204808    16.39052823    24.32991565
 H    16.68419784    15.40332854    24.69998457
 C    17.50169604    17.29296028    24.12576452
 H    18.51784342    17.01154241    24.33710261
 C    17.21375698    18.56236624    23.64951702
 H    18.00641706    19.27142192    23.48965399
 C    15.90604437    18.92468884    23.37817599
 H    15.69408343    19.91075024    23.00795752
 C    13.86197289    19.07416702    20.89441518
 C    14.57507909    18.03234931    20.30864484
 H    14.53068759    17.04876974    20.73974219
 C    15.34652067    18.25412623    19.18238059
 H    15.89241431    17.43865184    18.74237284
 C    15.41885036    19.52110051    18.62316057
 H    16.02143652    19.69275542    17.74912129
 C    14.71126831    20.56288703    19.19576118
 H    14.76116227    21.54868568    18.76868764
 C    13.93369888    20.33988557    20.32203766
 H    13.38671458    21.15368058    20.76262015
 C    10.72375481    18.63608416    20.92068773
 C    10.86921444    17.29621339    20.46644850
 H    11.67998424    16.70223855    20.84144947
 C     9.98176612    16.76233462    19.58043928
 H    10.09439959    15.74588718    19.24700561
 C     8.91425606    17.53933708    19.09065650
 H     8.22520519    17.10893728    18.38551140
 C     8.74991695    18.82966698    19.51323366
 H     7.93173723    19.42296214    19.14611811
 C     9.64581272    19.37661676    20.44536438
 H     9.51287081    20.38236657    20.79983514
