  49
SA(2)-CASSCF(10,10)/6-31G(d) optimizations 
 O    11.25362224    18.32162491    23.91857412
 C    12.42787780    18.34331152    24.29752730
 C    13.48594536    18.40318524    23.31125512
 C    13.03974606    18.50924729    21.94001912
 C    11.73448832    18.46815025    21.63433355
 C    12.66199532    18.28230372    25.78405444
 C    11.93597141    17.37176864    26.54422401
 H    11.24104063    16.71469886    26.05490490
 C    12.09688187    17.31689410    27.91687836
 H    11.53076015    16.60792125    28.49440911
 C    12.97776510    18.18308884    28.54632692
 H    13.08798753    18.15750831    29.61591471
 C    13.70901726    19.08662710    27.79406829
 H    14.39846259    19.75710560    28.27520691
 C    13.55848468    19.13250979    26.41735465
 H    14.13272217    19.83715246    25.84628252
 C    14.93593580    18.36390714    23.66151190
 C    15.47969753    17.24362394    24.28252566
 H    14.84836351    16.40226151    24.50527449
 C    16.82236144    17.19920931    24.61973742
 H    17.22125400    16.32545360    25.10377617
 C    17.64781797    18.27377243    24.33449595
 H    18.69027976    18.24090989    24.59670323
 C    17.12080558    19.39170301    23.70885250
 H    17.75500553    20.22834050    23.47487338
 C    15.77665547    19.43744823    23.37936396
 H    15.37750973    20.31212118    22.89874118
 C    13.99898866    18.59457010    20.78128329
 C    14.85103877    17.53697800    20.48803380
 H    14.83206923    16.65391232    21.10067656
 C    15.72077203    17.61159684    19.41373449
 H    16.36805734    16.78138875    19.19373715
 C    15.75570522    18.74869426    18.62196945
 H    16.43003852    18.80547154    17.78612504
 C    14.91513985    19.80993992    18.91253481
 H    14.93351206    20.69637655    18.30359477
 C    14.04381102    19.73341209    19.98711223
 H    13.39455670    20.56144272    20.20979354
 C    10.63500871    18.41408928    20.76210442
 C    10.23069811    17.19580908    20.16496161
 H    10.79817007    16.30543223    20.36248817
 C     9.13411147    17.15193166    19.34153619
 H     8.84496601    16.21897527    18.89126055
 C     8.38489264    18.30142941    19.09560069
 H     7.52963478    18.25858566    18.44606438
 C     8.74598429    19.50283250    19.69704486
 H     8.17207687    20.39207128    19.50528428
 C     9.83846903    19.56187619    20.52767111
 H    10.10212540    20.48499250    21.01115501
